<?xml version="1.0" encoding="UTF-8"?>
<net version="1.20" xmlns:xsi="http://www.w3.org/2001/XMLSchema-instance" xsi:noNamespaceSchemaLocation="http://sumo.dlr.de/xsd/net_file.xsd">
    <location netOffset="0.00,0.00" convBoundary="0.00,0.00,400.00,100.00" origBoundary="0.00,0.00,400.00,100.00" projParameter="!"/>
    
    <edge id="Segment1" from="node_start" to="TL1" priority="3">
        <lane id="Segment1_0" index="0" speed="16.67" length="150.00" shape="0.00,46.80 150.00,46.80"/>
        <lane id="Segment1_1" index="1" speed="16.67" length="150.00" shape="0.00,50.00 150.00,50.00"/>
    </edge>
    <edge id="Segment2" from="TL1" to="TL2" priority="3">
        <lane id="Segment2_0" index="0" speed="16.67" length="100.00" shape="160.00,46.80 260.00,46.80"/>
        <lane id="Segment2_1" index="1" speed="16.67" length="100.00" shape="160.00,50.00 260.00,50.00"/>
    </edge>
    <edge id="Segment3" from="TL2" to="node_end" priority="3">
        <lane id="Segment3_0" index="0" speed="16.67" length="140.00" shape="270.00,46.80 400.00,46.80"/>
        <lane id="Segment3_1" index="1" speed="16.67" length="140.00" shape="270.00,50.00 400.00,50.00"/>
    </edge>

    <junction id="node_start" type="dead_end" x="0.00" y="50.00"/>
    <junction id="node_end" type="dead_end" x="400.00" y="50.00"/>
    
    <junction id="TL1" type="traffic_light" x="155.00" y="50.00" incLanes="Segment1_0 Segment1_1" intLanes="" shape="150.00,51.60 150.00,45.20 160.00,45.20 160.00,51.60">
        <request index="0" response="00" foes="00"/>
        <request index="1" response="00" foes="00"/>
    </junction>
    
    <junction id="TL2" type="traffic_light" x="265.00" y="50.00" incLanes="Segment2_0 Segment2_1" intLanes="" shape="260.00,51.60 260.00,45.20 270.00,45.20 270.00,51.60">
        <request index="0" response="00" foes="00"/>
        <request index="1" response="00" foes="00"/>
    </junction>

    <tlLogic id="TL1" type="static" programID="0" offset="0">
        <phase duration="30" state="GG"/>
        <phase duration="5"  state="yy"/>
        <phase duration="25" state="rr"/>
    </tlLogic>
    <tlLogic id="TL2" type="static" programID="0" offset="10">
        <phase duration="35" state="GG"/>
        <phase duration="5"  state="yy"/>
        <phase duration="20" state="rr"/>
    </tlLogic>

    <connection from="Segment1" to="Segment2" fromLane="0" toLane="0" tl="TL1" linkIndex="0"/>
    <connection from="Segment1" to="Segment2" fromLane="1" toLane="1" tl="TL1" linkIndex="1"/>
    <connection from="Segment2" to="Segment3" fromLane="0" toLane="0" tl="TL2" linkIndex="0"/>
    <connection from="Segment2" to="Segment3" fromLane="1" toLane="1" tl="TL2" linkIndex="1"/>
</net>