<?xml version="1.0" encoding="UTF-8"?>
<routes xmlns:xsi="http://www.w3.org/2001/XMLSchema-instance" xsi:noNamespaceSchemaLocation="http://sumo.dlr.de/xsd/routes_file.xsd">
    <vType id="car" vClass="passenger" maxSpeed="14.0" accel="2.6" decel="4.5" length="4.5" sigma="0.5"/>
    <vType id="truck" vClass="truck" maxSpeed="10.0" accel="1.2" decel="3.5" length="12.0" sigma="0.7"/>
    <vType id="bus" vClass="bus" maxSpeed="11.0" accel="1.5" decel="4.0" length="10.0" sigma="0.6"/>

    <route id="main_avenue_route" edges="Segment1 Segment2 Segment3"/>

    <flow id="car_flow" type="car" route="main_avenue_route" begin="0" end="3600" period="4" departLane="free"/>
    <flow id="truck_flow" type="truck" route="main_avenue_route" begin="5" end="3600" period="15" departLane="free"/>
    <flow id="bus_flow" type="bus" route="main_avenue_route" begin="10" end="3600" period="20" departLane="free"/>
</routes>